simulators/grid-opentes/src/data/MVLV75/MVLV75_Lines.dss
! Linhas. O tipo de condutor segue o nivel de tensao do no de destino,
! como em create_grid_in_pandapower. Comprimento: milhas -> km.

New Line.Section_0_1 phases=3 bus1=n0 bus2=n1 linecode=MT_34AL1_6ST1A length=0.888356 units=km
New Line.Section_1_2 phases=3 bus1=n1 bus2=n2 linecode=MT_34AL1_6ST1A length=0.914105 units=km
New Line.Section_2_3 phases=3 bus1=n2 bus2=n3 linecode=MT_34AL1_6ST1A length=0.310603 units=km
New Line.Section_2_5 phases=3 bus1=n2 bus2=n5 linecode=MT_34AL1_6ST1A length=0.505333 units=km
New Line.Section_2_6 phases=3 bus1=n2 bus2=n6 linecode=MT_34AL1_6ST1A length=0.621205 units=km
New Line.Section_3_4 phases=3 bus1=n3 bus2=n4 linecode=MT_34AL1_6ST1A length=0.722594 units=km
New Line.Section_7_8 phases=3 bus1=n7 bus2=n8 linecode=BT_15AL1_3ST1A length=0.032187 units=km
New Line.Section_8_9 phases=3 bus1=n8 bus2=n9 linecode=BT_15AL1_3ST1A length=0.032187 units=km
New Line.Section_8_11 phases=3 bus1=n8 bus2=n11 linecode=BT_15AL1_3ST1A length=0.032187 units=km
New Line.Section_9_10 phases=3 bus1=n9 bus2=n10 linecode=BT_15AL1_3ST1A length=0.032187 units=km
New Line.Section_11_12 phases=3 bus1=n11 bus2=n12 linecode=BT_15AL1_3ST1A length=0.032187 units=km
New Line.Section_11_13 phases=3 bus1=n11 bus2=n13 linecode=BT_15AL1_3ST1A length=0.032187 units=km
New Line.Section_11_14 phases=3 bus1=n11 bus2=n14 linecode=BT_15AL1_3ST1A length=0.032187 units=km
New Line.Section_15_16 phases=3 bus1=n15 bus2=n16 linecode=BT_15AL1_3ST1A length=0.032187 units=km
New Line.Section_16_17 phases=3 bus1=n16 bus2=n17 linecode=BT_15AL1_3ST1A length=0.032187 units=km
New Line.Section_17_18 phases=3 bus1=n17 bus2=n18 linecode=BT_15AL1_3ST1A length=0.032187 units=km
New Line.Section_18_19 phases=3 bus1=n18 bus2=n19 linecode=BT_15AL1_3ST1A length=0.032187 units=km
New Line.Section_19_20 phases=3 bus1=n19 bus2=n20 linecode=BT_15AL1_3ST1A length=0.032187 units=km
New Line.Section_19_21 phases=3 bus1=n19 bus2=n21 linecode=BT_15AL1_3ST1A length=0.032187 units=km
New Line.Section_19_22 phases=3 bus1=n19 bus2=n22 linecode=BT_15AL1_3ST1A length=0.032187 units=km
New Line.Section_22_23 phases=3 bus1=n22 bus2=n23 linecode=BT_15AL1_3ST1A length=0.032187 units=km
New Line.Section_23_24 phases=3 bus1=n23 bus2=n24 linecode=BT_15AL1_3ST1A length=0.032187 units=km
New Line.Section_23_25 phases=3 bus1=n23 bus2=n25 linecode=BT_15AL1_3ST1A length=0.032187 units=km
New Line.Section_25_26 phases=3 bus1=n25 bus2=n26 linecode=BT_15AL1_3ST1A length=0.032187 units=km
New Line.Section_27_28 phases=3 bus1=n27 bus2=n28 linecode=BT_15AL1_3ST1A length=0.032187 units=km
New Line.Section_28_29 phases=3 bus1=n28 bus2=n29 linecode=BT_15AL1_3ST1A length=0.032187 units=km
New Line.Section_28_34 phases=3 bus1=n28 bus2=n34 linecode=BT_15AL1_3ST1A length=0.032187 units=km
New Line.Section_29_30 phases=3 bus1=n29 bus2=n30 linecode=BT_15AL1_3ST1A length=0.032187 units=km
New Line.Section_29_31 phases=3 bus1=n29 bus2=n31 linecode=BT_15AL1_3ST1A length=0.032187 units=km
New Line.Section_31_32 phases=3 bus1=n31 bus2=n32 linecode=BT_15AL1_3ST1A length=0.032187 units=km
New Line.Section_32_33 phases=3 bus1=n32 bus2=n33 linecode=BT_15AL1_3ST1A length=0.032187 units=km
New Line.Section_35_36 phases=3 bus1=n35 bus2=n36 linecode=BT_15AL1_3ST1A length=0.032187 units=km
New Line.Section_35_37 phases=3 bus1=n35 bus2=n37 linecode=BT_15AL1_3ST1A length=0.032187 units=km
New Line.Section_35_40 phases=3 bus1=n35 bus2=n40 linecode=BT_15AL1_3ST1A length=0.032187 units=km
New Line.Section_37_38 phases=3 bus1=n37 bus2=n38 linecode=BT_15AL1_3ST1A length=0.032187 units=km
New Line.Section_37_39 phases=3 bus1=n37 bus2=n39 linecode=BT_15AL1_3ST1A length=0.032187 units=km
New Line.Section_40_41 phases=3 bus1=n40 bus2=n41 linecode=BT_15AL1_3ST1A length=0.032187 units=km
New Line.Section_41_42 phases=3 bus1=n41 bus2=n42 linecode=BT_15AL1_3ST1A length=0.032187 units=km
New Line.Section_42_43 phases=3 bus1=n42 bus2=n43 linecode=BT_15AL1_3ST1A length=0.032187 units=km
New Line.Section_42_44 phases=3 bus1=n42 bus2=n44 linecode=BT_15AL1_3ST1A length=0.032187 units=km
New Line.Section_44_45 phases=3 bus1=n44 bus2=n45 linecode=BT_15AL1_3ST1A length=0.032187 units=km
New Line.Section_44_46 phases=3 bus1=n44 bus2=n46 linecode=BT_15AL1_3ST1A length=0.032187 units=km
New Line.Section_44_47 phases=3 bus1=n44 bus2=n47 linecode=BT_15AL1_3ST1A length=0.032187 units=km
New Line.Section_47_48 phases=3 bus1=n47 bus2=n48 linecode=BT_15AL1_3ST1A length=0.032187 units=km
New Line.Section_48_49 phases=3 bus1=n48 bus2=n49 linecode=BT_15AL1_3ST1A length=0.032187 units=km
New Line.Section_48_54 phases=3 bus1=n48 bus2=n54 linecode=BT_15AL1_3ST1A length=0.032187 units=km
New Line.Section_49_50 phases=3 bus1=n49 bus2=n50 linecode=BT_15AL1_3ST1A length=0.032187 units=km
New Line.Section_49_52 phases=3 bus1=n49 bus2=n52 linecode=BT_15AL1_3ST1A length=0.032187 units=km
New Line.Section_50_51 phases=3 bus1=n50 bus2=n51 linecode=BT_15AL1_3ST1A length=0.032187 units=km
New Line.Section_52_53 phases=3 bus1=n52 bus2=n53 linecode=BT_15AL1_3ST1A length=0.032187 units=km
New Line.Section_55_56 phases=3 bus1=n55 bus2=n56 linecode=BT_15AL1_3ST1A length=0.032187 units=km
New Line.Section_55_57 phases=3 bus1=n55 bus2=n57 linecode=BT_15AL1_3ST1A length=0.032187 units=km
New Line.Section_55_60 phases=3 bus1=n55 bus2=n60 linecode=BT_15AL1_3ST1A length=0.032187 units=km
New Line.Section_55_61 phases=3 bus1=n55 bus2=n61 linecode=BT_15AL1_3ST1A length=0.032187 units=km
New Line.Section_57_58 phases=3 bus1=n57 bus2=n58 linecode=BT_15AL1_3ST1A length=0.032187 units=km
New Line.Section_57_59 phases=3 bus1=n57 bus2=n59 linecode=BT_15AL1_3ST1A length=0.032187 units=km
New Line.Section_61_62 phases=3 bus1=n61 bus2=n62 linecode=BT_15AL1_3ST1A length=0.032187 units=km
New Line.Section_61_63 phases=3 bus1=n61 bus2=n63 linecode=BT_15AL1_3ST1A length=0.032187 units=km
New Line.Section_63_64 phases=3 bus1=n63 bus2=n64 linecode=BT_15AL1_3ST1A length=0.032187 units=km
New Line.Section_64_65 phases=3 bus1=n64 bus2=n65 linecode=BT_15AL1_3ST1A length=0.032187 units=km
New Line.Section_64_66 phases=3 bus1=n64 bus2=n66 linecode=BT_15AL1_3ST1A length=0.016093 units=km
New Line.Section_66_67 phases=3 bus1=n66 bus2=n67 linecode=BT_15AL1_3ST1A length=0.016093 units=km
New Line.Section_67_68 phases=3 bus1=n67 bus2=n68 linecode=BT_15AL1_3ST1A length=0.016093 units=km
New Line.Section_68_69 phases=3 bus1=n68 bus2=n69 linecode=BT_15AL1_3ST1A length=0.016093 units=km
New Line.Section_69_70 phases=3 bus1=n69 bus2=n70 linecode=BT_15AL1_3ST1A length=0.016093 units=km
New Line.Section_69_71 phases=3 bus1=n69 bus2=n71 linecode=BT_15AL1_3ST1A length=0.016093 units=km
New Line.Section_71_72 phases=3 bus1=n71 bus2=n72 linecode=BT_15AL1_3ST1A length=0.016093 units=km
New Line.Section_71_73 phases=3 bus1=n71 bus2=n73 linecode=BT_15AL1_3ST1A length=0.016093 units=km
New Line.Section_73_74 phases=3 bus1=n73 bus2=n74 linecode=BT_15AL1_3ST1A length=0.016093 units=km
