simulators/grid-opentes/src/data/MVLV75/MVLV75_Loads.dss
! Uma carga por no (o no 0 e a subestacao e nao tem carga), com potencia
! inicial zero: os valores vem dos agentes prosumidores a cada passo.
! Vminpu/Vmaxpu alargados para manter potencia constante em toda a faixa
! de tensao analisada (o padrao 0,95/1,05 trocaria para impedancia const.).

New Load.Load_1 phases=3 bus1=n1 conn=wye kV=13.8 kW=0.0 pf=0.9 model=1 Vminpu=0.7 Vmaxpu=1.4
New Load.Load_2 phases=3 bus1=n2 conn=wye kV=13.8 kW=0.0 pf=0.9 model=1 Vminpu=0.7 Vmaxpu=1.4
New Load.Load_3 phases=3 bus1=n3 conn=wye kV=13.8 kW=0.0 pf=0.9 model=1 Vminpu=0.7 Vmaxpu=1.4
New Load.Load_4 phases=3 bus1=n4 conn=wye kV=13.8 kW=0.0 pf=0.9 model=1 Vminpu=0.7 Vmaxpu=1.4
New Load.Load_5 phases=3 bus1=n5 conn=wye kV=13.8 kW=0.0 pf=0.9 model=1 Vminpu=0.7 Vmaxpu=1.4
New Load.Load_6 phases=3 bus1=n6 conn=wye kV=13.8 kW=0.0 pf=0.9 model=1 Vminpu=0.7 Vmaxpu=1.4
New Load.Load_7 phases=3 bus1=n7 conn=wye kV=0.38 kW=0.0 pf=0.9 model=1 Vminpu=0.7 Vmaxpu=1.4
New Load.Load_8 phases=3 bus1=n8 conn=wye kV=0.38 kW=0.0 pf=0.9 model=1 Vminpu=0.7 Vmaxpu=1.4
New Load.Load_9 phases=3 bus1=n9 conn=wye kV=0.38 kW=0.0 pf=0.9 model=1 Vminpu=0.7 Vmaxpu=1.4
New Load.Load_10 phases=3 bus1=n10 conn=wye kV=0.38 kW=0.0 pf=0.9 model=1 Vminpu=0.7 Vmaxpu=1.4
New Load.Load_11 phases=3 bus1=n11 conn=wye kV=0.38 kW=0.0 pf=0.9 model=1 Vminpu=0.7 Vmaxpu=1.4
New Load.Load_12 phases=3 bus1=n12 conn=wye kV=0.38 kW=0.0 pf=0.9 model=1 Vminpu=0.7 Vmaxpu=1.4
New Load.Load_13 phases=3 bus1=n13 conn=wye kV=0.38 kW=0.0 pf=0.9 model=1 Vminpu=0.7 Vmaxpu=1.4
New Load.Load_14 phases=3 bus1=n14 conn=wye kV=0.38 kW=0.0 pf=0.9 model=1 Vminpu=0.7 Vmaxpu=1.4
New Load.Load_15 phases=3 bus1=n15 conn=wye kV=0.38 kW=0.0 pf=0.9 model=1 Vminpu=0.7 Vmaxpu=1.4
New Load.Load_16 phases=3 bus1=n16 conn=wye kV=0.38 kW=0.0 pf=0.9 model=1 Vminpu=0.7 Vmaxpu=1.4
New Load.Load_17 phases=3 bus1=n17 conn=wye kV=0.38 kW=0.0 pf=0.9 model=1 Vminpu=0.7 Vmaxpu=1.4
New Load.Load_18 phases=3 bus1=n18 conn=wye kV=0.38 kW=0.0 pf=0.9 model=1 Vminpu=0.7 Vmaxpu=1.4
New Load.Load_19 phases=3 bus1=n19 conn=wye kV=0.38 kW=0.0 pf=0.9 model=1 Vminpu=0.7 Vmaxpu=1.4
New Load.Load_20 phases=3 bus1=n20 conn=wye kV=0.38 kW=0.0 pf=0.9 model=1 Vminpu=0.7 Vmaxpu=1.4
New Load.Load_21 phases=3 bus1=n21 conn=wye kV=0.38 kW=0.0 pf=0.9 model=1 Vminpu=0.7 Vmaxpu=1.4
New Load.Load_22 phases=3 bus1=n22 conn=wye kV=0.38 kW=0.0 pf=0.9 model=1 Vminpu=0.7 Vmaxpu=1.4
New Load.Load_23 phases=3 bus1=n23 conn=wye kV=0.38 kW=0.0 pf=0.9 model=1 Vminpu=0.7 Vmaxpu=1.4
New Load.Load_24 phases=3 bus1=n24 conn=wye kV=0.38 kW=0.0 pf=0.9 model=1 Vminpu=0.7 Vmaxpu=1.4
New Load.Load_25 phases=3 bus1=n25 conn=wye kV=0.38 kW=0.0 pf=0.9 model=1 Vminpu=0.7 Vmaxpu=1.4
New Load.Load_26 phases=3 bus1=n26 conn=wye kV=0.38 kW=0.0 pf=0.9 model=1 Vminpu=0.7 Vmaxpu=1.4
New Load.Load_27 phases=3 bus1=n27 conn=wye kV=0.38 kW=0.0 pf=0.9 model=1 Vminpu=0.7 Vmaxpu=1.4
New Load.Load_28 phases=3 bus1=n28 conn=wye kV=0.38 kW=0.0 pf=0.9 model=1 Vminpu=0.7 Vmaxpu=1.4
New Load.Load_29 phases=3 bus1=n29 conn=wye kV=0.38 kW=0.0 pf=0.9 model=1 Vminpu=0.7 Vmaxpu=1.4
New Load.Load_30 phases=3 bus1=n30 conn=wye kV=0.38 kW=0.0 pf=0.9 model=1 Vminpu=0.7 Vmaxpu=1.4
New Load.Load_31 phases=3 bus1=n31 conn=wye kV=0.38 kW=0.0 pf=0.9 model=1 Vminpu=0.7 Vmaxpu=1.4
New Load.Load_32 phases=3 bus1=n32 conn=wye kV=0.38 kW=0.0 pf=0.9 model=1 Vminpu=0.7 Vmaxpu=1.4
New Load.Load_33 phases=3 bus1=n33 conn=wye kV=0.38 kW=0.0 pf=0.9 model=1 Vminpu=0.7 Vmaxpu=1.4
New Load.Load_34 phases=3 bus1=n34 conn=wye kV=0.38 kW=0.0 pf=0.9 model=1 Vminpu=0.7 Vmaxpu=1.4
New Load.Load_35 phases=3 bus1=n35 conn=wye kV=0.38 kW=0.0 pf=0.9 model=1 Vminpu=0.7 Vmaxpu=1.4
New Load.Load_36 phases=3 bus1=n36 conn=wye kV=0.38 kW=0.0 pf=0.9 model=1 Vminpu=0.7 Vmaxpu=1.4
New Load.Load_37 phases=3 bus1=n37 conn=wye kV=0.38 kW=0.0 pf=0.9 model=1 Vminpu=0.7 Vmaxpu=1.4
New Load.Load_38 phases=3 bus1=n38 conn=wye kV=0.38 kW=0.0 pf=0.9 model=1 Vminpu=0.7 Vmaxpu=1.4
New Load.Load_39 phases=3 bus1=n39 conn=wye kV=0.38 kW=0.0 pf=0.9 model=1 Vminpu=0.7 Vmaxpu=1.4
New Load.Load_40 phases=3 bus1=n40 conn=wye kV=0.38 kW=0.0 pf=0.9 model=1 Vminpu=0.7 Vmaxpu=1.4
New Load.Load_41 phases=3 bus1=n41 conn=wye kV=0.38 kW=0.0 pf=0.9 model=1 Vminpu=0.7 Vmaxpu=1.4
New Load.Load_42 phases=3 bus1=n42 conn=wye kV=0.38 kW=0.0 pf=0.9 model=1 Vminpu=0.7 Vmaxpu=1.4
New Load.Load_43 phases=3 bus1=n43 conn=wye kV=0.38 kW=0.0 pf=0.9 model=1 Vminpu=0.7 Vmaxpu=1.4
New Load.Load_44 phases=3 bus1=n44 conn=wye kV=0.38 kW=0.0 pf=0.9 model=1 Vminpu=0.7 Vmaxpu=1.4
New Load.Load_45 phases=3 bus1=n45 conn=wye kV=0.38 kW=0.0 pf=0.9 model=1 Vminpu=0.7 Vmaxpu=1.4
New Load.Load_46 phases=3 bus1=n46 conn=wye kV=0.38 kW=0.0 pf=0.9 model=1 Vminpu=0.7 Vmaxpu=1.4
New Load.Load_47 phases=3 bus1=n47 conn=wye kV=0.38 kW=0.0 pf=0.9 model=1 Vminpu=0.7 Vmaxpu=1.4
New Load.Load_48 phases=3 bus1=n48 conn=wye kV=0.38 kW=0.0 pf=0.9 model=1 Vminpu=0.7 Vmaxpu=1.4
New Load.Load_49 phases=3 bus1=n49 conn=wye kV=0.38 kW=0.0 pf=0.9 model=1 Vminpu=0.7 Vmaxpu=1.4
New Load.Load_50 phases=3 bus1=n50 conn=wye kV=0.38 kW=0.0 pf=0.9 model=1 Vminpu=0.7 Vmaxpu=1.4
New Load.Load_51 phases=3 bus1=n51 conn=wye kV=0.38 kW=0.0 pf=0.9 model=1 Vminpu=0.7 Vmaxpu=1.4
New Load.Load_52 phases=3 bus1=n52 conn=wye kV=0.38 kW=0.0 pf=0.9 model=1 Vminpu=0.7 Vmaxpu=1.4
New Load.Load_53 phases=3 bus1=n53 conn=wye kV=0.38 kW=0.0 pf=0.9 model=1 Vminpu=0.7 Vmaxpu=1.4
New Load.Load_54 phases=3 bus1=n54 conn=wye kV=0.38 kW=0.0 pf=0.9 model=1 Vminpu=0.7 Vmaxpu=1.4
New Load.Load_55 phases=3 bus1=n55 conn=wye kV=0.38 kW=0.0 pf=0.9 model=1 Vminpu=0.7 Vmaxpu=1.4
New Load.Load_56 phases=3 bus1=n56 conn=wye kV=0.38 kW=0.0 pf=0.9 model=1 Vminpu=0.7 Vmaxpu=1.4
New Load.Load_57 phases=3 bus1=n57 conn=wye kV=0.38 kW=0.0 pf=0.9 model=1 Vminpu=0.7 Vmaxpu=1.4
New Load.Load_58 phases=3 bus1=n58 conn=wye kV=0.38 kW=0.0 pf=0.9 model=1 Vminpu=0.7 Vmaxpu=1.4
New Load.Load_59 phases=3 bus1=n59 conn=wye kV=0.38 kW=0.0 pf=0.9 model=1 Vminpu=0.7 Vmaxpu=1.4
New Load.Load_60 phases=3 bus1=n60 conn=wye kV=0.38 kW=0.0 pf=0.9 model=1 Vminpu=0.7 Vmaxpu=1.4
New Load.Load_61 phases=3 bus1=n61 conn=wye kV=0.38 kW=0.0 pf=0.9 model=1 Vminpu=0.7 Vmaxpu=1.4
New Load.Load_62 phases=3 bus1=n62 conn=wye kV=0.38 kW=0.0 pf=0.9 model=1 Vminpu=0.7 Vmaxpu=1.4
New Load.Load_63 phases=3 bus1=n63 conn=wye kV=0.38 kW=0.0 pf=0.9 model=1 Vminpu=0.7 Vmaxpu=1.4
New Load.Load_64 phases=3 bus1=n64 conn=wye kV=0.38 kW=0.0 pf=0.9 model=1 Vminpu=0.7 Vmaxpu=1.4
New Load.Load_65 phases=3 bus1=n65 conn=wye kV=0.38 kW=0.0 pf=0.9 model=1 Vminpu=0.7 Vmaxpu=1.4
New Load.Load_66 phases=3 bus1=n66 conn=wye kV=0.38 kW=0.0 pf=0.9 model=1 Vminpu=0.7 Vmaxpu=1.4
New Load.Load_67 phases=3 bus1=n67 conn=wye kV=0.38 kW=0.0 pf=0.9 model=1 Vminpu=0.7 Vmaxpu=1.4
New Load.Load_68 phases=3 bus1=n68 conn=wye kV=0.38 kW=0.0 pf=0.9 model=1 Vminpu=0.7 Vmaxpu=1.4
New Load.Load_69 phases=3 bus1=n69 conn=wye kV=0.38 kW=0.0 pf=0.9 model=1 Vminpu=0.7 Vmaxpu=1.4
New Load.Load_70 phases=3 bus1=n70 conn=wye kV=0.38 kW=0.0 pf=0.9 model=1 Vminpu=0.7 Vmaxpu=1.4
New Load.Load_71 phases=3 bus1=n71 conn=wye kV=0.38 kW=0.0 pf=0.9 model=1 Vminpu=0.7 Vmaxpu=1.4
New Load.Load_72 phases=3 bus1=n72 conn=wye kV=0.38 kW=0.0 pf=0.9 model=1 Vminpu=0.7 Vmaxpu=1.4
New Load.Load_73 phases=3 bus1=n73 conn=wye kV=0.38 kW=0.0 pf=0.9 model=1 Vminpu=0.7 Vmaxpu=1.4
New Load.Load_74 phases=3 bus1=n74 conn=wye kV=0.38 kW=0.0 pf=0.9 model=1 Vminpu=0.7 Vmaxpu=1.4
